<?xml version="1.0" encoding="UTF-8"?>
<!-- Generated by IntelliLight Route Generator -->
<routes>

  <!-- Vehicle Type Definitions -->
  <vType id="car" accel="2.9" decel="7.5" sigma="0.5" length="5" maxSpeed="50" guiShape="passenger"/>
  <vType id="2-wheeler" accel="2.5" decel="6.0" sigma="0.7" length="2.5" maxSpeed="40" guiShape="motorcycle"/>
  <vType id="bus" accel="1.5" decel="4.0" sigma="0.5" length="12" maxSpeed="30" guiShape="bus"/>
  <vType id="ambulance" accel="4.0" decel="8.0" sigma="0.2" length="7" maxSpeed="60" guiShape="emergency" vClass="emergency"/>

  <!-- Route Definitions -->
  <route id="W_E" edges="W1_to_J1 J1_to_E1"/>
  <route id="E_W" edges="E1_to_J1 J1_to_W1"/>
  <route id="N_S" edges="N1_to_J1 J1_to_S1"/>
  <route id="S_N" edges="S1_to_J1 J1_to_N1"/>

  <!-- Traffic Flows -->
  <flow id="flow_WE" type="car" route="W_E" begin="0" end="900" vehsPerHour="291"/>
  <flow id="flow_EW" type="car" route="E_W" begin="0" end="900" vehsPerHour="262"/>
  <flow id="flow_NS" type="car" route="N_S" begin="0" end="900" vehsPerHour="198"/>
  <flow id="flow_SN" type="car" route="S_N" begin="0" end="900" vehsPerHour="192"/>

</routes>
