<?xml version="1.0" encoding="UTF-8"?>

<!-- generated on 2026-03-07 20:16:19 by Eclipse SUMO netconvert Version 1.24.0
<netconvertConfiguration xmlns:xsi="http://www.w3.org/2001/XMLSchema-instance" xsi:noNamespaceSchemaLocation="http://sumo.dlr.de/xsd/netconvertConfiguration.xsd">

    <input>
        <node-files value="nodes.nod.xml"/>
        <edge-files value="edges.edg.xml"/>
        <connection-files value="connections.con.xml"/>
    </input>

    <output>
        <output-file value="intersection.net.xml"/>
    </output>

</netconvertConfiguration>
-->

<net version="1.20" junctionCornerDetail="5" limitTurnSpeed="5.50" xmlns:xsi="http://www.w3.org/2001/XMLSchema-instance" xsi:noNamespaceSchemaLocation="http://sumo.dlr.de/xsd/net_file.xsd">

    <location netOffset="250.00,250.00" convBoundary="0.00,0.00,500.00,500.00" origBoundary="-250.00,-250.00,250.00,250.00" projParameter="!"/>

    <edge id=":E1_0" function="internal">
        <lane id=":E1_0_0" index="0" speed="3.65" length="4.67" shape="500.00,248.40 501.20,249.20 501.60,250.00 501.20,250.80 500.00,251.60"/>
    </edge>
    <edge id=":J1_0" function="internal">
        <lane id=":J1_0_0" index="0" speed="6.51" length="9.03" shape="245.20,260.40 244.85,257.95 243.80,256.20 242.05,255.15 239.60,254.80"/>
    </edge>
    <edge id=":J1_1" function="internal">
        <lane id=":J1_1_0" index="0" speed="13.89" length="20.80" shape="245.20,260.40 245.20,239.60"/>
        <lane id=":J1_1_1" index="1" speed="13.89" length="20.80" shape="248.40,260.40 248.40,239.60"/>
    </edge>
    <edge id=":J1_3" function="internal">
        <lane id=":J1_3_0" index="0" speed="9.26" length="5.01" shape="248.40,260.40 249.11,255.44"/>
    </edge>
    <edge id=":J1_16" function="internal">
        <lane id=":J1_16_0" index="0" speed="9.26" length="14.34" shape="249.11,255.44 249.15,255.15 251.40,251.40 255.15,249.15 260.40,248.40"/>
    </edge>
    <edge id=":J1_4" function="internal">
        <lane id=":J1_4_0" index="0" speed="6.51" length="9.03" shape="260.40,254.80 257.95,255.15 256.20,256.20 255.15,257.95 254.80,260.40"/>
    </edge>
    <edge id=":J1_5" function="internal">
        <lane id=":J1_5_0" index="0" speed="13.89" length="20.80" shape="260.40,254.80 239.60,254.80"/>
        <lane id=":J1_5_1" index="1" speed="13.89" length="20.80" shape="260.40,251.60 239.60,251.60"/>
    </edge>
    <edge id=":J1_7" function="internal">
        <lane id=":J1_7_0" index="0" speed="9.26" length="5.01" shape="260.40,251.60 255.44,250.89"/>
    </edge>
    <edge id=":J1_17" function="internal">
        <lane id=":J1_17_0" index="0" speed="9.26" length="14.34" shape="255.44,250.89 255.15,250.85 251.40,248.60 249.15,244.85 248.40,239.60"/>
    </edge>
    <edge id=":J1_8" function="internal">
        <lane id=":J1_8_0" index="0" speed="6.51" length="9.03" shape="254.80,239.60 255.15,242.05 256.20,243.80 257.95,244.85 260.40,245.20"/>
    </edge>
    <edge id=":J1_9" function="internal">
        <lane id=":J1_9_0" index="0" speed="13.89" length="20.80" shape="254.80,239.60 254.80,260.40"/>
        <lane id=":J1_9_1" index="1" speed="13.89" length="20.80" shape="251.60,239.60 251.60,260.40"/>
    </edge>
    <edge id=":J1_11" function="internal">
        <lane id=":J1_11_0" index="0" speed="9.26" length="5.01" shape="251.60,239.60 250.89,244.56"/>
    </edge>
    <edge id=":J1_18" function="internal">
        <lane id=":J1_18_0" index="0" speed="9.26" length="14.34" shape="250.89,244.56 250.85,244.85 248.60,248.60 244.85,250.85 239.60,251.60"/>
    </edge>
    <edge id=":J1_12" function="internal">
        <lane id=":J1_12_0" index="0" speed="6.51" length="9.03" shape="239.60,245.20 242.05,244.85 243.80,243.80 244.85,242.05 245.20,239.60"/>
    </edge>
    <edge id=":J1_13" function="internal">
        <lane id=":J1_13_0" index="0" speed="13.89" length="20.80" shape="239.60,245.20 260.40,245.20"/>
        <lane id=":J1_13_1" index="1" speed="13.89" length="20.80" shape="239.60,248.40 260.40,248.40"/>
    </edge>
    <edge id=":J1_15" function="internal">
        <lane id=":J1_15_0" index="0" speed="9.26" length="5.01" shape="239.60,248.40 244.56,249.11"/>
    </edge>
    <edge id=":J1_19" function="internal">
        <lane id=":J1_19_0" index="0" speed="9.26" length="14.34" shape="244.56,249.11 244.85,249.15 248.60,251.40 250.85,255.15 251.60,260.40"/>
    </edge>
    <edge id=":N1_0" function="internal">
        <lane id=":N1_0_0" index="0" speed="3.65" length="4.67" shape="251.60,500.00 250.80,501.20 250.00,501.60 249.20,501.20 248.40,500.00"/>
    </edge>
    <edge id=":S1_0" function="internal">
        <lane id=":S1_0_0" index="0" speed="3.65" length="4.67" shape="248.40,0.00 249.20,-1.20 250.00,-1.60 250.80,-1.20 251.60,0.00"/>
    </edge>
    <edge id=":W1_0" function="internal">
        <lane id=":W1_0_0" index="0" speed="3.65" length="4.67" shape="0.00,251.60 -1.20,250.80 -1.60,250.00 -1.20,249.20 0.00,248.40"/>
    </edge>

    <edge id="E1_to_J1" from="E1" to="J1" priority="-1">
        <lane id="E1_to_J1_0" index="0" speed="13.89" length="239.60" shape="500.00,254.80 260.40,254.80"/>
        <lane id="E1_to_J1_1" index="1" speed="13.89" length="239.60" shape="500.00,251.60 260.40,251.60"/>
    </edge>
    <edge id="J1_to_E1" from="J1" to="E1" priority="-1">
        <lane id="J1_to_E1_0" index="0" speed="13.89" length="239.60" shape="260.40,245.20 500.00,245.20"/>
        <lane id="J1_to_E1_1" index="1" speed="13.89" length="239.60" shape="260.40,248.40 500.00,248.40"/>
    </edge>
    <edge id="J1_to_N1" from="J1" to="N1" priority="-1">
        <lane id="J1_to_N1_0" index="0" speed="13.89" length="239.60" shape="254.80,260.40 254.80,500.00"/>
        <lane id="J1_to_N1_1" index="1" speed="13.89" length="239.60" shape="251.60,260.40 251.60,500.00"/>
    </edge>
    <edge id="J1_to_S1" from="J1" to="S1" priority="-1">
        <lane id="J1_to_S1_0" index="0" speed="13.89" length="239.60" shape="245.20,239.60 245.20,0.00"/>
        <lane id="J1_to_S1_1" index="1" speed="13.89" length="239.60" shape="248.40,239.60 248.40,0.00"/>
    </edge>
    <edge id="J1_to_W1" from="J1" to="W1" priority="-1">
        <lane id="J1_to_W1_0" index="0" speed="13.89" length="239.60" shape="239.60,254.80 0.00,254.80"/>
        <lane id="J1_to_W1_1" index="1" speed="13.89" length="239.60" shape="239.60,251.60 0.00,251.60"/>
    </edge>
    <edge id="N1_to_J1" from="N1" to="J1" priority="-1">
        <lane id="N1_to_J1_0" index="0" speed="13.89" length="239.60" shape="245.20,500.00 245.20,260.40"/>
        <lane id="N1_to_J1_1" index="1" speed="13.89" length="239.60" shape="248.40,500.00 248.40,260.40"/>
    </edge>
    <edge id="S1_to_J1" from="S1" to="J1" priority="-1">
        <lane id="S1_to_J1_0" index="0" speed="13.89" length="239.60" shape="254.80,0.00 254.80,239.60"/>
        <lane id="S1_to_J1_1" index="1" speed="13.89" length="239.60" shape="251.60,0.00 251.60,239.60"/>
    </edge>
    <edge id="W1_to_J1" from="W1" to="J1" priority="-1">
        <lane id="W1_to_J1_0" index="0" speed="13.89" length="239.60" shape="0.00,245.20 239.60,245.20"/>
        <lane id="W1_to_J1_1" index="1" speed="13.89" length="239.60" shape="0.00,248.40 239.60,248.40"/>
    </edge>

    <tlLogic id="J1" type="static" programID="0" offset="0">
        <phase duration="42" state="GGGgrrrrGGGgrrrr"/>
        <phase duration="3"  state="yyyyrrrryyyyrrrr"/>
        <phase duration="42" state="rrrrGGGgrrrrGGGg"/>
        <phase duration="3"  state="rrrryyyyrrrryyyy"/>
    </tlLogic>

    <junction id="E1" type="priority" x="500.00" y="250.00" incLanes="J1_to_E1_0 J1_to_E1_1" intLanes=":E1_0_0" shape="500.00,250.00 500.00,243.60 500.00,250.00">
        <request index="0" response="0" foes="0" cont="0"/>
    </junction>
    <junction id="J1" type="traffic_light" x="250.00" y="250.00" incLanes="N1_to_J1_0 N1_to_J1_1 E1_to_J1_0 E1_to_J1_1 S1_to_J1_0 S1_to_J1_1 W1_to_J1_0 W1_to_J1_1" intLanes=":J1_0_0 :J1_1_0 :J1_1_1 :J1_16_0 :J1_4_0 :J1_5_0 :J1_5_1 :J1_17_0 :J1_8_0 :J1_9_0 :J1_9_1 :J1_18_0 :J1_12_0 :J1_13_0 :J1_13_1 :J1_19_0" shape="243.60,260.40 256.40,260.40 256.84,258.18 257.40,257.40 258.18,256.84 259.18,256.51 260.40,256.40 260.40,243.60 258.18,243.16 257.40,242.60 256.84,241.82 256.51,240.82 256.40,239.60 243.60,239.60 243.16,241.82 242.60,242.60 241.82,243.16 240.82,243.49 239.60,243.60 239.60,256.40 241.82,256.84 242.60,257.40 243.16,258.18 243.49,259.18">
        <request index="0"  response="0000000000000000" foes="0000000001100000" cont="0"/>
        <request index="1"  response="1000000010000000" foes="1111100011100000" cont="0"/>
        <request index="2"  response="1000000010000000" foes="1111100011100000" cont="0"/>
        <request index="3"  response="1000011010000000" foes="1110011011100000" cont="1"/>
        <request index="4"  response="0000011000000000" foes="0000011000000000" cont="0"/>
        <request index="5"  response="0000111000001111" foes="1000111000001111" cont="0"/>
        <request index="6"  response="0000111000001111" foes="1000111000001111" cont="0"/>
        <request index="7"  response="0110111000001110" foes="0110111000001110" cont="1"/>
        <request index="8"  response="0000000000000000" foes="0110000000000000" cont="0"/>
        <request index="9"  response="1000000010000000" foes="1110000011111000" cont="0"/>
        <request index="10" response="1000000010000000" foes="1110000011111000" cont="0"/>
        <request index="11" response="1000000010000110" foes="1110000011100110" cont="1"/>
        <request index="12" response="0000000000000110" foes="0000000000000110" cont="0"/>
        <request index="13" response="0000111100001110" foes="0000111110001110" cont="0"/>
        <request index="14" response="0000111100001110" foes="0000111110001110" cont="0"/>
        <request index="15" response="0000111001101110" foes="0000111001101110" cont="1"/>
    </junction>
    <junction id="N1" type="priority" x="250.00" y="500.00" incLanes="J1_to_N1_0 J1_to_N1_1" intLanes=":N1_0_0" shape="250.00,500.00 256.40,500.00 250.00,500.00">
        <request index="0" response="0" foes="0" cont="0"/>
    </junction>
    <junction id="S1" type="priority" x="250.00" y="0.00" incLanes="J1_to_S1_0 J1_to_S1_1" intLanes=":S1_0_0" shape="250.00,0.00 243.60,0.00 250.00,0.00">
        <request index="0" response="0" foes="0" cont="0"/>
    </junction>
    <junction id="W1" type="priority" x="0.00" y="250.00" incLanes="J1_to_W1_0 J1_to_W1_1" intLanes=":W1_0_0" shape="0.00,250.00 0.00,256.40 0.00,250.00">
        <request index="0" response="0" foes="0" cont="0"/>
    </junction>

    <junction id=":J1_16_0" type="internal" x="249.11" y="255.44" incLanes=":J1_3_0 S1_to_J1_0 S1_to_J1_1" intLanes=":J1_5_0 :J1_5_1 :J1_7_0 :J1_8_0 :J1_9_0 :J1_9_1 :J1_13_0 :J1_13_1 :J1_15_0"/>
    <junction id=":J1_17_0" type="internal" x="255.44" y="250.89" incLanes=":J1_7_0 W1_to_J1_0 W1_to_J1_1" intLanes=":J1_1_0 :J1_1_1 :J1_3_0 :J1_9_0 :J1_9_1 :J1_11_0 :J1_12_0 :J1_13_0 :J1_13_1"/>
    <junction id=":J1_18_0" type="internal" x="250.89" y="244.56" incLanes=":J1_11_0 N1_to_J1_0 N1_to_J1_1" intLanes=":J1_0_0 :J1_1_0 :J1_1_1 :J1_5_0 :J1_5_1 :J1_7_0 :J1_13_0 :J1_13_1 :J1_15_0"/>
    <junction id=":J1_19_0" type="internal" x="244.56" y="249.11" incLanes=":J1_15_0 E1_to_J1_0 E1_to_J1_1" intLanes=":J1_1_0 :J1_1_1 :J1_3_0 :J1_4_0 :J1_5_0 :J1_5_1 :J1_9_0 :J1_9_1 :J1_11_0"/>

    <connection from="E1_to_J1" to="J1_to_N1" fromLane="0" toLane="0" via=":J1_4_0" tl="J1" linkIndex="4" dir="r" state="o"/>
    <connection from="E1_to_J1" to="J1_to_W1" fromLane="0" toLane="0" via=":J1_5_0" tl="J1" linkIndex="5" dir="s" state="o"/>
    <connection from="E1_to_J1" to="J1_to_W1" fromLane="1" toLane="1" via=":J1_5_1" tl="J1" linkIndex="6" dir="s" state="o"/>
    <connection from="E1_to_J1" to="J1_to_S1" fromLane="1" toLane="1" via=":J1_7_0" tl="J1" linkIndex="7" dir="l" state="o"/>
    <connection from="J1_to_E1" to="E1_to_J1" fromLane="1" toLane="1" via=":E1_0_0" dir="t" state="M"/>
    <connection from="J1_to_N1" to="N1_to_J1" fromLane="1" toLane="1" via=":N1_0_0" dir="t" state="M"/>
    <connection from="J1_to_S1" to="S1_to_J1" fromLane="1" toLane="1" via=":S1_0_0" dir="t" state="M"/>
    <connection from="J1_to_W1" to="W1_to_J1" fromLane="1" toLane="1" via=":W1_0_0" dir="t" state="M"/>
    <connection from="N1_to_J1" to="J1_to_W1" fromLane="0" toLane="0" via=":J1_0_0" tl="J1" linkIndex="0" dir="r" state="O"/>
    <connection from="N1_to_J1" to="J1_to_S1" fromLane="0" toLane="0" via=":J1_1_0" tl="J1" linkIndex="1" dir="s" state="O"/>
    <connection from="N1_to_J1" to="J1_to_S1" fromLane="1" toLane="1" via=":J1_1_1" tl="J1" linkIndex="2" dir="s" state="O"/>
    <connection from="N1_to_J1" to="J1_to_E1" fromLane="1" toLane="1" via=":J1_3_0" tl="J1" linkIndex="3" dir="l" state="o"/>
    <connection from="S1_to_J1" to="J1_to_E1" fromLane="0" toLane="0" via=":J1_8_0" tl="J1" linkIndex="8" dir="r" state="O"/>
    <connection from="S1_to_J1" to="J1_to_N1" fromLane="0" toLane="0" via=":J1_9_0" tl="J1" linkIndex="9" dir="s" state="O"/>
    <connection from="S1_to_J1" to="J1_to_N1" fromLane="1" toLane="1" via=":J1_9_1" tl="J1" linkIndex="10" dir="s" state="O"/>
    <connection from="S1_to_J1" to="J1_to_W1" fromLane="1" toLane="1" via=":J1_11_0" tl="J1" linkIndex="11" dir="l" state="o"/>
    <connection from="W1_to_J1" to="J1_to_S1" fromLane="0" toLane="0" via=":J1_12_0" tl="J1" linkIndex="12" dir="r" state="o"/>
    <connection from="W1_to_J1" to="J1_to_E1" fromLane="0" toLane="0" via=":J1_13_0" tl="J1" linkIndex="13" dir="s" state="o"/>
    <connection from="W1_to_J1" to="J1_to_E1" fromLane="1" toLane="1" via=":J1_13_1" tl="J1" linkIndex="14" dir="s" state="o"/>
    <connection from="W1_to_J1" to="J1_to_N1" fromLane="1" toLane="1" via=":J1_15_0" tl="J1" linkIndex="15" dir="l" state="o"/>

    <connection from=":E1_0" to="E1_to_J1" fromLane="0" toLane="1" dir="t" state="M"/>
    <connection from=":J1_0" to="J1_to_W1" fromLane="0" toLane="0" dir="r" state="M"/>
    <connection from=":J1_1" to="J1_to_S1" fromLane="0" toLane="0" dir="s" state="M"/>
    <connection from=":J1_1" to="J1_to_S1" fromLane="1" toLane="1" dir="s" state="M"/>
    <connection from=":J1_3" to="J1_to_E1" fromLane="0" toLane="1" via=":J1_16_0" dir="l" state="m"/>
    <connection from=":J1_16" to="J1_to_E1" fromLane="0" toLane="1" dir="l" state="M"/>
    <connection from=":J1_4" to="J1_to_N1" fromLane="0" toLane="0" dir="r" state="M"/>
    <connection from=":J1_5" to="J1_to_W1" fromLane="0" toLane="0" dir="s" state="M"/>
    <connection from=":J1_5" to="J1_to_W1" fromLane="1" toLane="1" dir="s" state="M"/>
    <connection from=":J1_7" to="J1_to_S1" fromLane="0" toLane="1" via=":J1_17_0" dir="l" state="m"/>
    <connection from=":J1_17" to="J1_to_S1" fromLane="0" toLane="1" dir="l" state="M"/>
    <connection from=":J1_8" to="J1_to_E1" fromLane="0" toLane="0" dir="r" state="M"/>
    <connection from=":J1_9" to="J1_to_N1" fromLane="0" toLane="0" dir="s" state="M"/>
    <connection from=":J1_9" to="J1_to_N1" fromLane="1" toLane="1" dir="s" state="M"/>
    <connection from=":J1_11" to="J1_to_W1" fromLane="0" toLane="1" via=":J1_18_0" dir="l" state="m"/>
    <connection from=":J1_18" to="J1_to_W1" fromLane="0" toLane="1" dir="l" state="M"/>
    <connection from=":J1_12" to="J1_to_S1" fromLane="0" toLane="0" dir="r" state="M"/>
    <connection from=":J1_13" to="J1_to_E1" fromLane="0" toLane="0" dir="s" state="M"/>
    <connection from=":J1_13" to="J1_to_E1" fromLane="1" toLane="1" dir="s" state="M"/>
    <connection from=":J1_15" to="J1_to_N1" fromLane="0" toLane="1" via=":J1_19_0" dir="l" state="m"/>
    <connection from=":J1_19" to="J1_to_N1" fromLane="0" toLane="1" dir="l" state="M"/>
    <connection from=":N1_0" to="N1_to_J1" fromLane="0" toLane="1" dir="t" state="M"/>
    <connection from=":S1_0" to="S1_to_J1" fromLane="0" toLane="1" dir="t" state="M"/>
    <connection from=":W1_0" to="W1_to_J1" fromLane="0" toLane="1" dir="t" state="M"/>

</net>
