<routes>
    <vType id="car" accel="2.9" decel="7.5" sigma="0.5" length="5" maxSpeed="50"/>
    <route id="W_E" edges="W1_to_J1 J1_to_E1"/>
    <flow id="flow_WE" type="car" route="W_E" begin="0" end="1" vehsPerHour="100"/>
</routes>